5
Coordinates from ORCA-job input_IRC_Full E -188.584981367112
  C       0.230361     -0.361178      0.034516
  O      -1.152368     -0.153543      0.075286
  O       1.048326      0.530959     -0.060770
  H       0.493183     -1.419558      0.173644
  H      -1.584140     -0.266430     -0.813861
5
Coordinates from ORCA-job input_IRC_Full E -188.584980923636
  C       0.230202     -0.361131      0.034676
  O      -1.152190     -0.153679      0.075171
  O       1.048218      0.530832     -0.060849
  H       0.493203     -1.419427      0.173628
  H      -1.584071     -0.266347     -0.813811
5
Coordinates from ORCA-job input_IRC_Full E -188.584980694622
  C       0.230223     -0.361074      0.034917
  O      -1.152258     -0.154071      0.075175
  O       1.048229      0.530856     -0.061057
  H       0.493185     -1.419202      0.174978
  H      -1.583389     -0.261404     -0.814796
5
Coordinates from ORCA-job input_IRC_Full E -188.584982090621
  C       0.230244     -0.361016      0.035158
  O      -1.152327     -0.154464      0.075179
  O       1.048240      0.530880     -0.061265
  H       0.493167     -1.418977      0.176328
  H      -1.582707     -0.256462     -0.815782
5
Coordinates from ORCA-job input_IRC_Full E -188.584982603898
  C       0.230424     -0.361054      0.035090
  O      -1.152551     -0.154603      0.075333
  O       1.048344      0.531030     -0.061327
  H       0.493153     -1.419099      0.176424
  H      -1.582753     -0.256314     -0.815900
